!!>>>>>>>>>>>>>>>>>>>>>>>>>>>>>>>>>>>>>>>>>>>>>>>>>>>>>>>>>>>>>>>>>>>>>>
!! NEMO/OCE eNEATL36 Configuration namelist : overwrite default values defined in SHARED/namelist_ref
!!>>>>>>>>>>>>>>>>>>>>>>>>>>>>>>>>>>>>>>>>>>>>>>>>>>>>>>>>>>>>>>>>>>>>>>
!! NEMO/OCE  :  1 - Domain & run manager (namrun, namcfg, namdom, namtsd, namc1d, namc1d_uvd)
!! namelists    2 - Surface boundary (namsbc, namsbc_flx, namsbc_blk, namsbc_cpl,
!!                                    namsbc_sas, namtra_qsr, namsbc_rnf,
!!                                    namisf, namsbc_apr, 
!!                                    namsbc_ssr, namsbc_wave, namberg)
!!              3 - lateral boundary (namlbc, namagrif, nambdy, nambdy_tide)
!!              4 - top/bot boundary (namdrg, namdrg_top, namdrg_bot, nambbc, nambbl)
!!              5 - Tracer           (nameos, namtra_adv, namtra_ldf, namtra_eiv, namtra_dmp)
!!              6 - dynamics         (namdyn_adv, namdyn_vor, namdyn_hpg, namdyn_spg, namdyn_ldf)
!!              7 - Vertical physics (namzdf, namzdf_ric, namzdf_tke, namzdf_gls, namzdf_iwm)
!!              8 - diagnostics      (namnc4, namtrd, namspr)
!!              9 - Obs & Assim      (namobs, nam_asminc)
!!             10 - miscellaneous    (nammpp, namctl, namsto)
!!>>>>>>>>>>>>>>>>>>>>>>>>>>>>>>>>>>>>>>>>>>>>>>>>>>>>>>>>>>>>>>>>>>>>>>

!!======================================================================
!!              ***  Domain & Run management namelists  ***           !!
!!                                                                    !!
!!   namrun       parameters of the run
!!   namdom       space and time domain
!!   namcfg       parameters of the configuration                       (default: user defined GYRE)
!!   namwad       Wetting and drying                                    (default: OFF)
!!   namtsd       data: temperature & salinity                          (default: OFF)
!!   namc1d       1D configuration options                              (ln_c1d =T)
!!   namc1d_dyndmp 1D newtonian damping applied on currents             (ln_c1d =T)
!!   namc1d_uvd   1D data (currents)                                    (ln_c1d =T)
!!======================================================================
!
!-----------------------------------------------------------------------
&namrun        !   parameters of the run
!-----------------------------------------------------------------------
   nn_no       =       0   !  Assimilation cycle index
   cn_exp      = "{MEMBER}eNEATL12_H{HINDCAST_YEAR}_C{CYCLE_NUMBER}" !  experience name
   nn_it000    =  {NN_IT000}  !  first time step
   nn_itend    =  {NN_ITEND}    !  last  time step (std 5840)
   nn_date0    =  {NN_DATE0}  !  date at nit_0000 (format yyyymmdd) used if ln_rstart=F or (ln_rstart=T and nn_rstctl=0 or 1)
   nn_time0    =       0   !  initial time of day in hhmm
   nn_leapy    =       1   !  Leap year calendar (1) or not (0)
   ln_rstart   = .true.    !  start from rest (F) or from a restart file (T)
      nn_rstctl    =    0     !  restart control ==> activated only if ln_rstart=T
      !                          !    = 0 nn_date0 read in namelist ; nn_it000 : read in namelist
      !                          !    = 1 nn_date0 read in namelist ; nn_it000 : check consistancy between namelist and restart
      !                          !    = 2 nn_date0 read in restart  ; nn_it000 : check consistancy between namelist and restart
      cn_ocerst_in    = "restart_oce" !  suffix of ocean restart name (input) 
                                                  ! IVB (the suffix in the namelist remains the same. in the CI 
                                                  ! folder this will be used to point to the actual file through links.) 
      cn_ocerst_indir = "./CI/" !  directory from which to read input ocean restarts
      cn_ocerst_out   = "restart_oce" !  suffix of ocean restart name (output)
      cn_ocerst_outdir =  "RESTART/" !  directory in which to write output ocean restarts
   nn_istate   =       0   !  output the initial state (1) or not (0)
   ln_rst_list = .false.   !  output restarts at list of times using nn_stocklist (T) or at set frequency with nn_stock (F)
   nn_stock    =       0   !  used only if ln_rst_list = F: output restart freqeuncy (modulo referenced to 1)
      !                          !    =  0 force to write restart files only at the end of the run
      !                          !    = -1 do not do any restart
   nn_stocklist = 0,0,0,0,0,0,0,0,0,0 ! List of timesteps when a restart file is to be written
   nn_write    =       0   !  used only if key_xios is not defined: output frequency (modulo referenced to nn_it000)
      !                          !    =  0 force to write output files only at the end of the run
      !                          !    = -1 do not do any output file
   ln_mskland  = .true.    !  mask land points in NetCDF outputs
   ln_cfmeta   = .false.   !  output additional data to netCDF files required for compliance with the CF metadata standard
   ln_clobber  = .true.    !  clobber (overwrite) an existing file
   nn_chunksz  =       0   !  chunksize (bytes) for NetCDF file (works only with iom_nf90 routines)
   ln_xios_read = .false.  !  use XIOS to read restart file (only for a single file restart)
   nn_wxios = 0      !  use XIOS to write restart file 0 - no, 1 - single file output, 2 - multiple file output
   ln_top      = .FALSE.   !  Consider (T) or bypass (F) the TOP routines when the key_top is activated
/
!-----------------------------------------------------------------------
&namdom        !   time and space domain
!-----------------------------------------------------------------------
   rn_Dt       = 900.  !  time step for the dynamics and tracer
   !
   ln_c1d      = .false.   !  Single column domain (1x1pt)              (T => fill namc1d)
   !
   ln_meshmask = .false.   !  =T create a mesh file
   !
   ln_shuman   = .false.   !  =T  shuman averaging active  (RK3 only)
/
!-----------------------------------------------------------------------
&namcfg        !   parameters of the configuration                      (default: use namusr_def in namelist_cfg)
!-----------------------------------------------------------------------
   ln_read_cfg = .true.      !  (=T) read the domain configuration file
      !                      !  (=F) user defined configuration           (F => create/check namusr_def)
      cn_domcfg = "INPUTS/domain_cfg_init.nc"  ! domain configuration filename
      !
      ln_closea    = .false. !  (=T => fill namclo) 
      !                      !  (=F) no control of net precip/evap over closed sea
      !
   ln_write_cfg = .false.    !  (=T) create the domain configuration file
      cn_domcfg_out = "domain_cfg_out" ! newly created domain configuration filename
/
!-----------------------------------------------------------------------
&namtile        !   parameters of the tiling
!-----------------------------------------------------------------------
/
!-----------------------------------------------------------------------
&namclo        !   parameters of the closed sea (cs) behavior                (default: OFF)
!-----------------------------------------------------------------------
/
!-----------------------------------------------------------------------
&namtsd        !    Temperature & Salinity Data  (init/dmp)             (default: OFF)
!-----------------------------------------------------------------------
/
!-----------------------------------------------------------------------
&namwad        !   Wetting and Drying (WaD)                             (default: OFF)
!-----------------------------------------------------------------------
/
!-----------------------------------------------------------------------
&namc1d        !   1D configuration options                             (ln_c1d =T default: PAPA station)
!-----------------------------------------------------------------------
/

!!======================================================================
!!            ***  Surface Boundary Condition namelists  ***          !!
!!                                                                    !!
!!   namsbc          surface boundary condition manager                 (default: NO selection)
!!   namsbc_flx      flux               formulation                     (ln_flx     =T)
!!   namsbc_blk      Bulk formulae formulation                          (ln_blk     =T)
!!   namsbc_cpl      CouPLed            formulation                     ("key_oasis3" )
!!   namsbc_sas      Stand-Alone Surface module                         (SAS_SRC  only)
!!   namsbc_iif      Ice-IF: use observed ice cover                     (nn_ice = 1   )
!!   namtra_qsr      penetrative solar radiation                        (ln_traqsr  =T)
!!   namsbc_ssr      sea surface restoring term (for T and/or S)        (ln_ssr     =T)
!!   namsbc_rnf      river runoffs                                      (ln_rnf     =T)
!!   namsbc_apr      Atmospheric Pressure                               (ln_apr_dyn =T)
!!   namsbc_wave     external fields from wave model                    (ln_wave    =T)
!!   namberg         iceberg floats                                     (ln_icebergs=T)
!!   namsbc_fwb      freshwater-budget adjustment                       (nn_fwb > 0)
!!======================================================================
!
!-----------------------------------------------------------------------
&namsbc        !   Surface Boundary Condition manager                   (default: NO selection)
!-----------------------------------------------------------------------
   nn_fsbc     = 1         !  frequency of SBC module call
      !                    !  (control sea-ice & iceberg model call)
                     ! Type of air-sea fluxes
   ln_usr      = .false.   !  user defined formulation                  (T => check usrdef_sbc)
   ln_flx      = .false.   !  flux formulation                          (T => fill namsbc_flx )
   ln_blk      = .true.    !  Bulk formulation                          (T => fill namsbc_blk )
   ln_abl      = .false.   !  ABL  formulation                          (T => fill namsbc_abl )
      !              ! Type of coupling (Ocean/Ice/Atmosphere) :
   ln_cpl      = .false.   !  atmosphere coupled   formulation          ( requires key_oasis3 )
   ln_mixcpl   = .false.   !  forced-coupled mixed formulation          ( requires key_oasis3 )
   nn_components = 0       !  configuration of the opa-sas OASIS coupling
      !                    !  =0 no opa-sas OASIS coupling: default single executable config.
      !                    !  =1 opa-sas OASIS coupling: multi executable config., OCE component
      !                    !  =2 opa-sas OASIS coupling: multi executable config., SAS component
                     ! Sea-ice :
   nn_ice      = 0         !  =0 no ice boundary condition
      !                    !  =1 use observed ice-cover                 (  => fill namsbc_iif )
      !                    !  =2 or 3 for SI3 and CICE, respectively
   ln_ice_embd = .false.   !  =T embedded sea-ice (pressure + mass and salt exchanges)
      !                    !  =F levitating ice (no pressure, mass and salt exchanges)
                     ! Misc. options of sbc :
   ln_traqsr   = .true.    !  Light penetration in the ocean            (T => fill namtra_qsr)
   ln_dm2dc    = .false.   !  daily mean to diurnal cycle on short wave
   ln_ssr      = .false.   !  Sea Surface Restoring on T and/or S       (T => fill namsbc_ssr)
   nn_fwb      = 0         !  FreshWater Budget: =0 unchecked
      !                    !     =1 volume set to zero at each time step
      !                    !     =2 volume adjusted from previous year budget (uniform correction to emp)
      !                    !     =3 volume adjusted from previous year budget (non-uniform correction - proportional to erp)
      !                    !     =4 special treatment for ISOMIP+ test case
   ln_rnf      = .true.    !  runoffs                                   (T => fill namsbc_rnf)
   ln_apr_dyn  = .TRUE.   !  Patm gradient added in ocean & ice Eqs.   (T => fill namsbc_apr )
   ln_wave     = .false.   !  Activate coupling with wave  (T => fill namsbc_wave)
   nn_lsm      = 0         !  =0 land/sea mask for input fields is not applied (keep empty land/sea mask filename field) ,
                           !  =1:n number of iterations of land/sea mask application for input fields (fill land/sea mask filename field)
/
!-----------------------------------------------------------------------
&namsbc_flx    !   surface boundary condition : flux formulation        (ln_flx =T)
!-----------------------------------------------------------------------
/
!-----------------------------------------------------------------------
&namsbc_blk    !   namsbc_blk  generic Bulk formula          (ln_blk =T)
!-----------------------------------------------------------------------
   !                    !  bulk algorithm :
   ln_NCAR      = .false.    ! "NCAR"      algorithm   (Large and Yeager 2008)
   ln_COARE_3p0 = .false.    ! "COARE 3.0" algorithm   (Fairall et al. 2003)
   ln_COARE_3p6 = .false.    ! "COARE 3.6" algorithm   (Edson et al. 2013)
   ln_ECMWF     = .true.     ! "ECMWF"     algorithm   (IFS cycle 45r1)
   ln_MFS       = .false.    ! "MFS"       algorithm   (MFS/BS Copernicus, Petenuzzo et al 2010)
   ln_ANDREAS   = .false.    ! "ANDREAS"   algorithm   (Andreas et al. 2015)
      rn_zqt       =  2.     !  Air temperature & humidity reference height (m)
      rn_zu        = 10.     !  Wind vector reference height (m)
      nn_iter_algo = 5       !  Number of iterations in bulk param. algo ("stable ABL + weak wind" requires more)
      ln_skin_cs   = .false. !  use the cool-skin parameterization  => use at least nn_iter_algo > 10
      ln_skin_wl   = .false. !  use the warm-layer parameterization => use at least nn_iter_algo > 10
   !
   rn_pfac    = 1.          !  multipl. factor for precipitation (total & snow)
   rn_efac    = 1.          !  multipl. factor for evaporation (0. or 1.)
   !
   ln_crt_fbk = .true.     !  Add surface current feedback to the wind stress (Renault et al. 2020, doi: 10.1029/2019MS001715)
         rn_stau_a = -2.9e-3   !     Alpha from eq. 10: Stau = Alpha * Wnd + Beta
         rn_stau_b =  8.0e-3   !     Beta 
   !
   ln_humi_sph = .true.  !  humidity "sn_humi" is specific humidity  [kg/kg]
   ln_humi_dpt = .false. !  humidity "sn_humi" is dew-point temperature [K]
   ln_humi_rlh = .false. !  humidity "sn_humi" is relative humidity     [%]
   ln_tair_pot = .false. !  air temperature read in "sn_tair" is already POTENTIAL TEMPERATURE, NOT ABSOLUTE (ECMWF => ln_tair_pot=.false.)
   ln_prec_met = .false. !  precipitation read in "sn_prec" is in [m] 
   !!
   !
   cn_dir      = 'INPUTS/ATM/'      !  root directory for the bulk data location
   !___________!_________________________!___________________!___________!_____________!________!___________!______________________________________!__________!_______________!
   !           !  file name              ! frequency (hours) ! variable  ! time interp.!  clim  ! 'yearly'/ !       weights filename               ! rotation ! land/sea mask !
   !           !                         !  (if <0  months)  !   name    !   (logical) !  (T/F) ! 'monthly' !                                      ! pairing  !    filename   !
   sn_wndi     = 'ERA5_BULKU10_3H'        ,        3.        , 'u10'     ,   .true.    , .false., 'monthly' , 'weights_bicubic.nc'                 ,   'U10'  ,      ''
   sn_wndj     = 'ERA5_BULKV10_3H'        ,        3.        , 'v10'     ,   .true.    , .false., 'monthly' , 'weights_bicubic.nc'                 ,   'V10'  ,      ''
   sn_qsr      = 'ERA5_FLUXSSRD_3H'       ,        3.        , 'ssrd'    ,   .false.   , .false., 'monthly' , 'weights_bilinear.nc'                ,     ''   ,      ''
   sn_qlw      = 'ERA5_FLUXSTRD_3H'       ,        3.        , 'strd'    ,   .false.   , .false., 'monthly' , 'weights_bilinear.nc'                ,     ''   ,      ''
   sn_tair     = 'ERA5_BULKTAIR_3H'       ,        3.        , 't2m'     ,   .true.    , .false., 'monthly' , 'weights_bilinear.nc'                ,     ''   ,      ''
   sn_humi     = 'ERA5_BULKHUMI_3H'       ,        3.        , 'q2m'     ,   .true.    , .false., 'monthly' , 'weights_bilinear.nc'                ,     ''   ,      ''
   sn_prec     = 'ERA5_FLUXPRE_3H'        ,        3.        , 'tp'      ,   .false.   , .false., 'monthly' , 'weights_bilinear.nc'                ,     ''   ,      ''
   sn_snow     = 'NOT USED'               ,      -12.        , 'snow'    ,   .false.   , .true. , 'monthly',            ''                         ,     ''   ,      ''
   sn_slp      = 'ERA5_MSLP_3H'           ,        3.        , 'msl'     ,   .true.    , .false., 'monthly' , 'weights_bilinear.nc'                ,     ''   ,      ''
   sn_cc       = 'NOT USED'              , 24.               , 'CC'       , .false.    , .true. , 'yearly'  , 'weights_core_orca2_bilinear_noc.nc'  , ''      , ''
   sn_hpgi     = 'NOT USED'              , 24.               , 'uhpg'     , .false.    , .false., 'monthly' , ''                                    , 'UG'    , ''
   sn_hpgj     = 'NOT USED'              , 24.               , 'vhpg'     , .false.    , .false., 'monthly' , ''                                    , 'VG'    , ''
/
!-----------------------------------------------------------------------
&namsbc_abl    !   Atmospheric Boundary Layer formulation           (ln_abl = T)
!-----------------------------------------------------------------------
/
!-----------------------------------------------------------------------
&namsbc_cpl    !   coupled ocean/atmosphere model                       ("key_oasis3")
!-----------------------------------------------------------------------
/
!-----------------------------------------------------------------------
&namsbc_sas    !   Stand-Alone Surface module: ocean data               (SAS_SRC  only)
!-----------------------------------------------------------------------
/
!-----------------------------------------------------------------------
&namsbc_iif    !   Ice-IF : use observed ice cover                      (nn_ice = 1)
!-----------------------------------------------------------------------
/
!-----------------------------------------------------------------------
&namtra_qsr    !   penetrative solar radiation                          (ln_traqsr =T)
!-----------------------------------------------------------------------
   !                       !  type of penetration                        (default: NO selection)
   ln_qsr_rgb  = .false.      !  RGB light penetration (Red-Green-Blue)
   ln_qsr_2bd  = .false.      !  2BD light penetration (two bands)
   ln_qsr_5bd  = .true.       !  5BD light penetration (IR-Red-Green-Blue-UV)
   ln_qsr_bio  = .false.      !  bio-model light penetration
   !                       !  RGB, 2BD & 5BD choices:
   rn_abs      =   0.45       !  RGB & 2BD: fraction absorbed in the very near surface
   rn_si0      =   0.35       !  RGB & 2BD: shortess depth of extinction
   nn_chldta   =      1       !  RGB : 3D Chl data (=2), Surface Chl data (=1) or Cst value (=0)
   rn_si1      =   23.0       !  2BD : longest depth of extinction
   rn_par      =   0.47       !  5BD : fraction of photosynthetically active radiation

   cn_dir      = 'INPUTS/'         !  root directory for data location
   !___________!_________________________!___________________!___________!_____________!________!___________!__________________!__________!_______________!
   !           !  file name              ! frequency (hours) ! variable  ! time interp.!  clim  ! 'yearly'/ ! weights filename ! rotation ! land/sea mask !
   !           !                         !  (if <0  months)  !   name    !   (logical) !  (T/F) ! 'monthly' !                  ! pairing  !    filename   !
   sn_chl      ='CHL_eNEATL12'           ,        -1.        ,  'CHL'    ,.true.       , .true. , 'yearly'  , ''               , ''       , ''
/
!-----------------------------------------------------------------------
&namsbc_ssr    !   surface boundary condition : sea surface restoring   (ln_ssr =T)
!-----------------------------------------------------------------------
/
!-----------------------------------------------------------------------
&namsbc_rnf    !   runoffs                                              (ln_rnf =T)
!-----------------------------------------------------------------------
   ln_rnf_mouth = .true.    !  specific treatment at rivers mouths
      rn_hrnf     =   5.e0     !  depth over which enhanced vertical mixing is used    (ln_rnf_mouth=T)
      rn_avt_rnf  =   1.e-3    !  value of the additional vertical mixing coef. [m2/s] (ln_rnf_mouth=T)
   rn_rfact     =   1.e0    !  multiplicative factor for runoff
   ln_rnf_depth = .false.   !  read in depth information for runoff
   ln_rnf_tem   = .false.   !  read in temperature information for runoff
   ln_rnf_sal   = .false.   !  read in salinity information for runoff
   ln_rnf_icb   = .false.   !  read iceberg flux
   ln_rnf_depth_ini = .false.  ! compute depth at initialisation from runoff file
      rn_rnf_max  = 5.735e-4   !  max value of the runoff climatologie over global domain ( ln_rnf_depth_ini = .true )
      rn_dep_max  = 150.       !  depth over which runoffs is spread ( ln_rnf_depth_ini = .true )
      nn_rnf_depth_file = 0    !  create (=1) a runoff depth file or not (=0)

   cn_dir       = 'INPUTS/'         !  root directory for the runoff data location
   !___________!_________________________!___________________!___________!_____________!________!___________!__________________!__________!_______________!
   !           !  file name              ! frequency (hours) ! variable  ! time interp.!  clim  ! 'yearly'/ ! weights filename ! rotation ! land/sea mask !
   !           !                         !  (if <0  months)  !   name    !   (logical) !  (T/F) ! 'monthly' !                  ! pairing  !    filename   !
   sn_rnf      = 'runoff_NEMO_ORCA12_V3.5_IBI',    -1        , 'sorunoff',    .true.   , .true. , 'yearly'  ,        ''        ,    ''    ,      ''
   sn_cnf      = 'runoff_NEMO_ORCA12_V3.5_IBI',    -1        , 'socoefr' ,    .false.  , .true. , 'yearly'  ,        ''        ,    ''    ,      ''
/
!-----------------------------------------------------------------------
&namsbc_apr    !   Atmospheric pressure used as ocean forcing           (ln_apr_dyn =T)
!-----------------------------------------------------------------------
   rn_pref     = 100970.   !  reference atmolsspheric pressure   [N/m2]/
   nn_ref_apr  =   2       !  ref. pressure: 0: constant, 1: global mean or 2: read in a file
   ln_apr_obc  = .true.    !  inverse barometer added to OBC ssh data

   cn_dir       = 'INPUTS/ATM/'         !  root directory for the runoff data location
   !___________!_________________________!___________________!___________!_____________!________!___________!__________________!__________!_______________!
   !           !  file name              ! frequency (hours) ! variable  ! time interp.!  clim  ! 'yearly'/ ! weights filename ! rotation ! land/sea mask !
   !           !                         !  (if <0  months)  !   name    !   (logical) !  (T/F) ! 'monthly' !                  ! pairing  !    filename   !
   sn_apr      = 'ERA5_MSLP_3H'          ,         3         ,   'msl'   ,   .true.    , .false.,  'monthly', 'weights_bilinear.nc', ''   ,       ''
   sn_apref    = 'pref_series_3H'        ,         3         ,   'msl'   ,   .true.    , .false.,  'yearly' ,         ''           , ''   ,       ''
/
!-----------------------------------------------------------------------
&namisf       !  Top boundary layer (ISF)                               (default: OFF)
!-----------------------------------------------------------------------
/
!-----------------------------------------------------------------------
&namsbc_wave   ! External fields from wave model                        (ln_wave=T)
!-----------------------------------------------------------------------
/
!-----------------------------------------------------------------------
&namberg       !   iceberg parameters                                   (default: OFF)
!-----------------------------------------------------------------------
/
!!======================================================================
!!               ***  Lateral boundary condition  ***                 !!
!!                                                                    !!
!!   namlbc        lateral momentum boundary condition                  (default: NO selection)
!!   namagrif      agrif nested grid   (read by child model only)       ("key_agrif")
!!   nam_tide      Tidal forcing                                        (default: OFF)
!!   nambdy        Unstructured open boundaries                         (default: OFF)
!!   nambdy_dta    Unstructured open boundaries - external data         (see  nambdy)
!!   nambdy_tide   tidal forcing at open boundaries                     (default: OFF)
!!======================================================================
!
!-----------------------------------------------------------------------
&namlbc        !   lateral momentum boundary condition                  (default: NO selection)
!-----------------------------------------------------------------------
   !                       !  free slip  !   partial slip  !   no slip   ! strong slip
   rn_shlat    =   -100    !  shlat = 0  !  0 < shlat < 2  !  shlat = 2  !  2 < shlat
   ln_vorlat   = .false.   !  consistency of vorticity boundary condition with analytical Eqs.
/
!-----------------------------------------------------------------------
&namagrif      !  AGRIF zoom                                            ("key_agrif")
!-----------------------------------------------------------------------
/
!-----------------------------------------------------------------------
&nam_tide      !   tide parameters                                      (default: OFF)
!-----------------------------------------------------------------------
   ln_tide     = .true.       ! Activate tides
      nn_tide_var   = 0          !  Variant of tidal parameter set and tide-potential computation
      !                          !     (1: default; 0: compatibility with previous versions)
      ln_tide_pot   = .true.                !  use tidal potential forcing
         rn_tide_gamma = 0.7                   ! Tidal tilt factor
         ln_scal_load  = .false.               ! Use scalar approximation for
            rn_scal_load = 0.094               !     load potential
         ln_read_load  = .true.                ! Or read load potential from file
            ln_sal_fldread = .false.           ! F: use iom T:use fldread
            cn_tide_load = 'INPUTS/tide_LOAD_FES2014_grid_T'  ! filename for load potential
            !
      ln_tide_ramp  = .TRUE.               !  Use linear ramp for tides at startup
         rn_tide_ramp_dt = 0.9              !  ramp duration in days
      sn_tide_cnames(1) = 'M2'               !  name of constituent - all tidal components must be set in namelist_cfg
      sn_tide_cnames(2) = 'S2'
      sn_tide_cnames(3) = 'N2'
      sn_tide_cnames(4) = 'K1'
      sn_tide_cnames(5) = 'O1'
      sn_tide_cnames(6) = 'Q1'
      sn_tide_cnames(7) = 'M4'
      sn_tide_cnames(8) = 'K2'
      sn_tide_cnames(9) = 'P1'
      sn_tide_cnames(10)= 'Mf'
      sn_tide_cnames(11)= 'Mm'
/
!-----------------------------------------------------------------------
&nambdy        !  unstructured open boundaries                          (default: OFF)
!-----------------------------------------------------------------------
   ln_bdy         = .true.    !  Use unstructured open boundaries
   nb_bdy         = 5         !  number of open boundary sets
   ln_coords_file = .false.,.false.,.false.,.false.,.false. !  =T : read bdy coordinates from file
      cn_coords_file = '','','','',''  !  bdy coordinates files
   ln_mask_file   = .false.   !  =T : read mask from file
      cn_mask_file = ''        !  name of mask file (if ln_mask_file=.TRUE.)
   cn_dyn2d       =  'flather','flather','flather','flather','flather'        !
   nn_dyn2d_dta   =  3,3,3,3,3           !  = 0, bdy data are equal to the initial state
                                         !  = 1, bdy data are read in 'bdydata   .nc' files
                                         !  = 2, use tidal harmonic forcing data from files
                                         !  = 3, use external data AND tidal harmonic forcing
   cn_dyn3d      =  'specified','specified','specified','specified','specified'          !
   nn_dyn3d_dta  =  1,1,1,1,1            !  = 0, bdy data are equal to the initial state
   !
   cn_tra        =  'specified','specified','specified','specified','specified'          !
   nn_tra_dta    =  1,1,1,1,1            !  = 0, bdy data are equal to the initial state
                                         !  = 1, bdy data are read in 'bdydata   .nc' files
   cn_trc        =  'specified','specified','specified','specified','specified'          !
   nn_trc_dta    =  1,1,1,1,1            !  = 0, bdy data are equal to the initial state
   !                                     !  = 1, bdy data are read in 'bdydata   .nc' files
   cn_ice        =  'none'    !
   nn_ice_dta    =  0         !  = 0, bdy data are equal to the initial state
   !                          !  = 1, bdy data are read in 'bdydata   .nc' files
   !
   ln_tra_dmp    =.true.,.true.,.true.,.true.,.true.   !  open boudaries conditions for tracers
   ln_trc_dmp    =.true.,.true.,.true.,.true.,.true.   !  open boudaries conditions for tracers
   ln_dyn3d_dmp  =.true.,.true.,.true.,.true.,.true.   !  open boundary condition for baroclinic velocities